I"ê/Users/erikabarrero/Desktop/flatiron/main/module%202/rails-dynamic-request-readme-houston-web-071618/app/assets/javascripts/application.js?type=application/javascript&id=0853eabb3814c87ca23334b1764a24ddb13b43a27bed39783f3d9f9ea56e3258:ET