I"Ý/Users/erikabarrero/Desktop/flatiron/main/module%202/rails-dynamic-request-readme-houston-web-071618/app/assets/stylesheets/application.css?type=text/css&id=4abda87a5d523fc0b1b0c6f58afe199338ae106b015fcb6d55f0e880c7996e3b:ET