I"Ý/Users/erikabarrero/Desktop/flatiron/main/module%202/rails-dynamic-request-readme-houston-web-071618/app/assets/stylesheets/application.css?type=text/css&id=5002e95d4d0b3345c83f9391bb9ed60a47aa51f04e700fbbc65e1a098d7dbdf0:ET