I"ø/Users/erikabarrero/Desktop/flatiron/main/module%202/rails-dynamic-request-readme-houston-web-071618/app/assets/javascripts/application.js?type=application/javascript&pipeline=self&id=755840d832507765f566cf339a13688e3375aada72bfb2b35d75b1c8529cf139:ET