I"ê/Users/erikabarrero/Desktop/flatiron/main/module%202/rails-dynamic-request-readme-houston-web-071618/app/assets/javascripts/application.js?type=application/javascript&id=57b91c935eee5f10381ec2a493a322166d8a23b97a9af4bb605c9ade2b0afef0:ET