I"ë/Users/erikabarrero/Desktop/flatiron/main/module%202/rails-dynamic-request-readme-houston-web-071618/app/assets/stylesheets/application.css?type=text/css&pipeline=self&id=84095e7102e1739c55c7b91e2776d521ea0d3ba541f6640ebee85ca64b467610:ET