I"ì/Users/erikabarrero/Desktop/flatiron/main/module%202/rails-dynamic-request-readme-houston-web-071618/app/assets/stylesheets/application.css?type=text/css&pipeline=debug&id=4f76c79d22d6d42b10df8df8920f8fc6a97f7e7e80e62d2ec7802774e67543fb:ET