I"ë/Users/erikabarrero/Desktop/flatiron/main/module%202/rails-dynamic-request-readme-houston-web-071618/app/assets/stylesheets/application.css?type=text/css&pipeline=self&id=c8a4e083c8ddad8541526093a40be9c356879e28c50ebc42bea526c25622d0c5:ET