I"ù/Users/erikabarrero/Desktop/flatiron/main/module%202/rails-dynamic-request-readme-houston-web-071618/app/assets/javascripts/application.js?type=application/javascript&pipeline=debug&id=5d0a8c8678a627aff9b583f530d67560727c0cfff906a4136eaf6871663a9b5f:ET