I"ø/Users/erikabarrero/Desktop/flatiron/main/module%202/rails-dynamic-request-readme-houston-web-071618/app/assets/javascripts/application.js?type=application/javascript&pipeline=self&id=e4e666d9c70842ab40c01b30e295fbc28ac3704460719fb8c553750887926e73:ET